2020-08-14 04:16:18,666  INFO Gbl:63 JVM: 11.0.7; Oracle Corporation; mixed mode; 64-bit
2020-08-14 04:16:18,666  INFO Gbl:67 OS: Windows 8.1; 6.3; amd64
2020-08-14 04:16:18,666  INFO Gbl:70 CPU cores: 8
2020-08-14 04:16:18,667  INFO Gbl:71 max. Memory: 4078.0MB (4276092928B)
2020-08-14 04:16:18,667  INFO Gbl:109 MATSim-Build: r92f5a963d96c1378d104c07359ace3469f91ad77 (2019-04-10 11:10:17)
2020-08-14 04:16:18,669  INFO ControlerListenerManagerImpl:107 calling notifyStartup on org.matsim.counts.CountsControlerListener
2020-08-14 04:16:18,669  INFO ControlerListenerManagerImpl:107 calling notifyStartup on org.matsim.analysis.ModeStatsControlerListener
2020-08-14 04:16:18,669 DEBUG NetworkRoutingProvider:75 requesting network routing module with routingMode=car;	mode=car
2020-08-14 04:16:18,669  INFO ControlerListenerManagerImpl:107 calling notifyStartup on org.matsim.analysis.ScoreStatsControlerListener
2020-08-14 04:16:18,670  INFO ControlerListenerManagerImpl:110 all ControlerStartupListeners called.
2020-08-14 04:16:18,671  INFO ControlerUtils:58 config dump before iterations start
2020-08-14 04:16:18,683  INFO ControlerUtils:62 

<?xml version="1.0" encoding="UTF-8"?>
<!DOCTYPE config SYSTEM "http://www.matsim.org/files/dtd/config_v2.dtd">
<config>
	<module name="JDEQSim" >
		<param name="carSize" value="7.5" />
		<param name="endTime" value="undefined" />
		<param name="flowCapacityFactor" value="1.0" />
		<param name="gapTravelSpeed" value="15.0" />
		<param name="minimumInFlowCapacity" value="1800.0" />
		<param name="squeezeTime" value="1800.0" />
		<param name="storageCapacityFactor" value="1.0" />
	</module>
	<module name="TimeAllocationMutator" >
		<!-- Default:true; Defines whether time mutation changes an activity's duration. -->
		<param name="mutationAffectsDuration" value="true" />
		<!-- Default:1800.0; Defines how many seconds a time mutation can maximally shift a time. -->
		<param name="mutationRange" value="1800.0" />
		<!-- false; Use individual settings for each subpopulation. If enabled but no settings are found, regular settings are uses as fallback. -->
		<param name="useIndividualSettingsForSubpopulations" value="false" />
	</module>
	<module name="changeMode" >
		<!-- Defines whether car availability is considered be considered or not. An agent has no car only if it has no license, or never access to a car. Default: true -->
		<param name="ignoreCarAvailability" value="true" />
		<!-- Defines the mode switch behavior. Possible values [fromAllModesToSpecifiedModes, fromSpecifiedModesToSpecifiedModes] Default: fromSpecifiedModesToSpecifiedModes. -->
		<param name="modeSwitchBehavior" value="fromSpecifiedModesToSpecifiedModes" />
		<!-- Defines all the modes available, including chain-based modes, seperated by commas -->
		<param name="modes" value="car,pt" />
	</module>
	<module name="controler" >
		<!-- Sets whether graphs showing some analyses should automatically be generated during the simulation. The generation of graphs usually takes a small amount of time that does not have any weight in big simulations, but add a significant overhead in smaller runs or in test cases where the graphical output is not even requested. -->
		<param name="createGraphs" value="true" />
		<!-- true if at the end of a run, plans, network, config etc should be dumped to a file -->
		<param name="dumpDataAtEnd" value="true" />
		<!-- Default=false. If enabled, the router takes travel times needed for turning moves into account. Cannot be used if the (Fast)AStarLandmarks routing or TravelTimeCalculator.separateModes is enabled. -->
		<param name="enableLinkToLinkRouting" value="false" />
		<!-- Default=xml; Specifies the file format for writing events. Currently supported: xml.
		Multiple values can be specified separated by commas (','). -->
		<param name="eventsFileFormat" value="xml" />
		<!-- Default=0;  -->
		<param name="firstIteration" value="0" />
		<!-- Default=1000;  -->
		<param name="lastIteration" value="0" />
		<!-- Defines which mobility simulation will be used. Currently supported: qsim JDEQSim 
		Depending on the chosen mobsim, you'll have to add additional config modules to configure the corresponding mobsim.
		For 'qsim', add a module 'qsim' to the config. -->
		<param name="mobsim" value="qsim" />
		<param name="outputDirectory" value="test/output/multi_mode_one_taxi" />
		<!-- Possible values: failIfDirectoryExists, overwriteExistingFiles, deleteDirectoryIfExists -->
		<param name="overwriteFiles" value="deleteDirectoryIfExists" />
		<!-- The type of routing (least cost path) algorithm used, may have the values: Dijkstra, FastDijkstra, AStarLandmarks or FastAStarLandmarks -->
		<param name="routingAlgorithmType" value="AStarLandmarks" />
		<!-- An identifier for the current run which is used as prefix for output files and mentioned in output xml files etc. -->
		<param name="runId" value="null" />
		<!-- Comma-separated list of visualizer output file formats. `transims', `googleearth', and `otfvis'. -->
		<param name="snapshotFormat" value="" />
		<!-- iterationNumber % writeEventsInterval == 0 defines in which iterations events are written to a file. `0' disables events writing completely. -->
		<param name="writeEventsInterval" value="10" />
		<!-- iterationNumber % writePlansInterval == 0 defines (hopefully) in which iterations plans are written to a file. `0' disables plans writing completely.  Some plans in early iterations are always written -->
		<param name="writePlansInterval" value="10" />
		<!-- iterationNumber % writeSnapshotsInterval == 0 defines in which iterations snapshots are written to a file. `0' disables snapshots writing completely -->
		<param name="writeSnapshotsInterval" value="1" />
	</module>
	<module name="counts" >
		<!-- Transport modes that will be respected for the counts comparison. 'car' is default, which includes also bussed from the pt simulation module. Use this parameter in combination with 'filterModes' = true! -->
		<param name="analyzedModes" value="car" />
		<!-- Specifies over how many iterations the link volumes should be averaged that are used for the counts comparison. Use 1 or 0 to only use the link volumes of a single iteration. This values cannot be larger than the value specified for writeCountsInterval -->
		<param name="averageCountsOverIterations" value="5" />
		<!-- factor by which to re-scale the simulated values.  necessary when simulation runs with something different from 100%.  needs to be adapted manually -->
		<param name="countsScaleFactor" value="1.0" />
		<!-- distance to distanceFilterCenterNode to include counting stations. The unit of distance is the Euclidean distance implied by the coordinate system -->
		<param name="distanceFilter" value="null" />
		<!-- node id for center node of distance filter -->
		<param name="distanceFilterCenterNode" value="null" />
		<!-- If true, link counts from legs performed on modes not included in the 'analyzedModes' parameter are ignored. -->
		<param name="filterModes" value="false" />
		<!-- The Coordinates Reference System in which the coordinates are expressed in the input file. At import, the coordinates will be converted to the coordinate system defined in "global", and willbe converted back at export. If not specified, no conversion happens. -->
		<param name="inputCRS" value="null" />
		<!-- input file name to counts package -->
		<param name="inputCountsFile" value="null" />
		<!-- possible values: `html', `kml', `txt', `all' -->
		<param name="outputformat" value="txt" />
		<!-- Specifies how often the counts comparison should be calculated and written. -->
		<param name="writeCountsInterval" value="10" />
	</module>
	<module name="dvrp" >
		<!-- Mode of which the network will be used for throwing events and hence calculating travel times. Default is car. -->
		<param name="mobsimMode" value="car" />
		<!-- Mode of which the network will be used for routing vehicles. Default is car, i.e. the car network is used. 'null' means no network filtering - the scenario.network is used -->
		<param name="networkMode" value="car" />
		<!-- Used for OFFLINE estimation of travel times for VrpOptimizer by means of the exponential moving average. The weighting decrease, alpha, must be in (0,1]. We suggest small values of alpha, e.g. 0.05. The averaging starts from the initial travel time estimates. If not provided, the free-speed TTs is used as the initial estimates -->
		<param name="travelTimeEstimationAlpha" value="0.05" />
		<!-- Used for ONLINE estimation of travel times for VrpOptimizer by combining WithinDayTravelTime and DvrpOfflineTravelTimeEstimator. The beta coefficient is provided in seconds and should be either 0 (no online estimation) or positive (mixed online-offline estimation). For 'beta = 0', only the offline estimate is used: 'onlineTT(t) = offlineTT(t)', where 'offlineTT(t)' in the offline estimate for TT at time 't', For 'beta > 0', estimating future TTs at time 't', uses the currently observed TT to correct the offline estimates is made: where 'currentTT' is the currently observed TT, and 'correction = min(1, max(0, 1 - (time - currentTime) / beta))' The rule is that correction decreases linearly from 1 (when 'time = currentTime') to 0 (when 'time = currentTime + beta' For 'time > currentTime + beta' correction is 0, whereas if 'time < currentTime' it is 1. If beta is sufficiently large, 'beta >> 0', only the currently observed TT is used. -->
		<param name="travelTimeEstimationBeta" value="0.0" />
	</module>
	<module name="facilities" >
		<!-- This defines how facilities should be created. Possible values: none fromFile setInScenario onePerActivityLinkInPlansFile onePerActivityLocationInPlansFile  -->
		<param name="facilitiesSource" value="none" />
		<!-- A prefix to be used for auto-generated IDs. -->
		<param name="idPrefix" value="autogen_" />
		<!-- The Coordinates Reference System in which the coordinates are expressed in the input file. At import, the coordinates will be converted to the coordinate system defined in "global", and willbe converted back at export. If not specified, no conversion happens. -->
		<param name="inputCRS" value="null" />
		<param name="inputFacilitiesFile" value="null" />
		<param name="inputFacilityAttributesFile" value="null" />
	</module>
	<module name="global" >
		<param name="coordinateSystem" value="Atlantis" />
		<param name="insistingOnDeprecatedConfigVersion" value="true" />
		<!-- "global" number of threads.  This number is used, e.g., for replanning, but NOT in the mobsim.  This can typically be set to as many cores as you have available, or possibly even slightly more. -->
		<param name="numberOfThreads" value="2" />
		<param name="randomSeed" value="4711" />
	</module>
	<module name="households" >
		<param name="inputFile" value="null" />
		<param name="inputHouseholdAttributesFile" value="null" />
	</module>
	<module name="linkStats" >
		<!-- Specifies over how many iterations the link volumes should be averaged that are used for the link statistics. Use 1 or 0 to only use the link volumes of a single iteration. This values cannot be larger than the value specified for writeLinkStatsInterval -->
		<param name="averageLinkStatsOverIterations" value="5" />
		<!-- Specifies how often the link stats should be calculated and written. Use 0 to disable the generation of link stats. -->
		<param name="writeLinkStatsInterval" value="10" />
	</module>
	<module name="multiModeTaxi" >
		<parameterset type="taxi" >
			<!-- Used in AStarEuclidean for shortest path search for occupied drives. Default value is 1.0. Values above 1.0 (typically, 1.5 to 3.0) speed up search, but at the cost of obtaining longer paths -->
			<param name="AStarEuclideanOverdoFactor" value="1.0" />
			<!-- Specifies whether the simulation should interrupt if not all requests were performed when an interation ends. Otherwise, a warning is given. True by default. -->
			<param name="breakIfNotAllRequestsServed" value="true" />
			<!-- If true, the startLink is changed to last link in the current schedule, so the taxi starts the next day at the link where it stopped operating the day before. False by default. -->
			<param name="changeStartLinkToLastLinkInSchedule" value="true" />
			<!-- If false, the drop-off location remains unknown to the optimizer and scheduler until the end of pickup. False by default. -->
			<param name="destinationKnown" value="false" />
			<!-- If true, detailed hourly taxi stats are dumped after each iteration. False by default. -->
			<param name="detailedStats" value="true" />
			<!-- Dropoff duration. Must be positive. -->
			<param name="dropoffDuration" value="60.0" />
			<!-- Mode which will be handled by PassengerEngine and VrpOptimizer (passengers'/customers' perspective) -->
			<param name="mode" value="taxi_A" />
			<!-- If true, vehicles are (GPS-like) monitored while moving. This helps in getting more accurate estimates on the time of arrival. Online tracking is necessary for vehicle diversion. False by default. -->
			<param name="onlineVehicleTracker" value="false" />
			<!-- Pickup duration. Must be positive. -->
			<param name="pickupDuration" value="120.0" />
			<!-- Prints detailed warnings for taxi customers that cannot be served or routed. True by default. -->
			<param name="plotDetailedWarnings" value="true" />
			<!-- An XML file specifying the taxi fleet. The file format according to dvrp_vehicles_v1.dtd -->
			<param name="taxisFile" value="one_taxi_vehicles_A.xml" />
			<!-- If true, writes time profiles of vehicle statuses (i.e. current task type) and the number of unplanned requests are written to a text file (taxi_status_time_profiles) and saved as plots. False by default. -->
			<param name="timeProfiles" value="true" />
			<!-- If true, vehicles can be diverted during empty trips. Requires online tracking. False by default. -->
			<param name="vehicleDiversion" value="false" />
			<parameterset type="optimizer" >
				<param name="cellSize" value="1000" />
				<param name="goal" value="DEMAND_SUPPLY_EQUIL" />
				<param name="id" value="example" />
				<param name="nearestRequestsLimit" value="99999" />
				<param name="nearestVehiclesLimit" value="99999" />
				<param name="type" value="RULE_BASED" />
			</parameterset>
		</parameterset>
		<parameterset type="taxi" >
			<param name="AStarEuclideanOverdoFactor" value="1.0" />
			<param name="breakIfNotAllRequestsServed" value="true" />
			<param name="changeStartLinkToLastLinkInSchedule" value="true" />
			<param name="destinationKnown" value="false" />
			<param name="detailedStats" value="true" />
			<param name="dropoffDuration" value="60.0" />
			<param name="mode" value="taxi_B" />
			<param name="onlineVehicleTracker" value="false" />
			<param name="pickupDuration" value="120.0" />
			<param name="plotDetailedWarnings" value="true" />
			<param name="taxisFile" value="one_taxi_vehicles_B.xml" />
			<param name="timeProfiles" value="true" />
			<param name="vehicleDiversion" value="false" />
			<parameterset type="optimizer" >
				<param name="cellSize" value="1000" />
				<param name="goal" value="DEMAND_SUPPLY_EQUIL" />
				<param name="id" value="example" />
				<param name="nearestRequestsLimit" value="99999" />
				<param name="nearestVehiclesLimit" value="99999" />
				<param name="type" value="RULE_BASED" />
			</parameterset>
		</parameterset>
		<parameterset type="taxi" >
			<param name="AStarEuclideanOverdoFactor" value="1.0" />
			<param name="breakIfNotAllRequestsServed" value="true" />
			<param name="changeStartLinkToLastLinkInSchedule" value="true" />
			<param name="destinationKnown" value="false" />
			<param name="detailedStats" value="true" />
			<param name="dropoffDuration" value="60.0" />
			<param name="mode" value="taxi_C" />
			<param name="onlineVehicleTracker" value="false" />
			<param name="pickupDuration" value="120.0" />
			<param name="plotDetailedWarnings" value="true" />
			<param name="taxisFile" value="one_taxi_vehicles_C.xml" />
			<param name="timeProfiles" value="true" />
			<param name="vehicleDiversion" value="false" />
			<parameterset type="optimizer" >
				<param name="cellSize" value="1000" />
				<param name="goal" value="DEMAND_SUPPLY_EQUIL" />
				<param name="id" value="example" />
				<param name="nearestRequestsLimit" value="99999" />
				<param name="nearestVehiclesLimit" value="99999" />
				<param name="type" value="RULE_BASED" />
			</parameterset>
		</parameterset>
	</module>
	<module name="network" >
		<!-- The Coordinates Reference System in which the coordinates are expressed in the input file. At import, the coordinates will be converted to the coordinate system defined in "global", and willbe converted back at export. If not specified, no conversion happens. -->
		<param name="inputCRS" value="null" />
		<param name="inputChangeEventsFile" value="null" />
		<param name="inputNetworkFile" value="grid_network.xml" />
		<param name="laneDefinitionsFile" value="null" />
		<param name="timeVariantNetwork" value="false" />
	</module>
	<module name="otfvis" >
		<!-- The (initial) size of the agents.  Only a range of numbers is allowed, otherwise otfvis aborts rather ungracefully, or displays no agents at all. -->
		<param name="agentSize" value="120.0" />
		<!-- coloring scheme for otfvis.  Currently (2012) allowed values: standard bvg bvg2 byId gtfs taxicab -->
		<param name="coloringScheme" value="taxicab" />
		<!-- If non-moving items (e.g. agents at activities, at bus stops, etc.) should be showed.  May affect all non-moving items. -->
		<param name="drawNonMovingItems" value="true" />
		<param name="drawTransitFacilities" value="true" />
		<param name="drawTransitFacilityIds" value="true" />
		<param name="leftMouseFunc" value="Zoom" />
		<!-- The (initial) width of the links of the network. Use positive floating point values. -->
		<param name="linkWidth" value="30.0" />
		<!-- Link width is proportional to `numberOfLanes' or to `capacity'. -->
		<param name="linkwidthIsProportionalTo" value="numberOfLanes" />
		<!-- URL to get WMS tiles from. For a local GeoServer instance, use http://localhost:8080/geoserver/wms?service=WMS& -->
		<param name="mapBaseURL" value="" />
		<!-- The WMS layer to display. For GeoServer and a layer called clipped in workspace mz, use mz:clipped -->
		<param name="mapLayer" value="" />
		<!-- Render everything on top of map tiles. Default: From tiles.openstreetmap.org -->
		<param name="mapOverlayMode" value="false" />
		<param name="middleMouseFunc" value="Pan" />
		<param name="rightMouseFunc" value="Select" />
		<param name="showTeleportation" value="false" />
	</module>
	<module name="parallelEventHandling" >
		<!-- Estimated number of events during mobsim run. An optional optimization hint for the framework. -->
		<param name="estimatedNumberOfEvents" value="null" />
		<!-- Number of threads for parallel events handler. _null_ means the framework decides by itself. 0 is currently not possible. -->
		<param name="numberOfThreads" value="null" />
		<!-- If enabled, each event handler is assigned to its own thread. Note that enabling this feature disabled the numberOfThreads option! This feature is still experimental! -->
		<param name="oneThreadPerHandler" value="false" />
		<!-- If enabled, it is ensured that all events that are created during a time step of the mobility simulation are processed before the next time step is simulated. E.g. neccessary when within-day replanning is used. -->
		<param name="synchronizeOnSimSteps" value="true" />
	</module>
	<module name="planCalcScore" >
		<!-- logit model scale parameter. default: 1.  Has name and default value for historical reasons (see Bryan Raney's phd thesis). -->
		<param name="BrainExpBeta" value="1.0" />
		<param name="PathSizeLogitBeta" value="1.0" />
		<!-- fraction of iterations at which MSA score averaging is started. The matsim theory department suggests to use this together with switching off choice set innovation (where a similar switch exists), but it has not been tested yet. -->
		<param name="fractionOfIterationsToStartScoreMSA" value="null" />
		<!-- new_score = (1-learningRate)*old_score + learningRate * score_from_mobsim.  learning rates close to zero emulate score averaging, but slow down initial convergence -->
		<param name="learningRate" value="1.0" />
		<!-- There used to be a plateau between duration=0 and duration=zeroUtilityDuration. This caused durations to evolve to zero once they were below zeroUtilityDuration, causing problems.  Only use this switch if you need to be backwards compatible with some old results.  (changed nov'13) -->
		<param name="usingOldScoringBelowZeroUtilityDuration" value="false" />
		<!-- write a plans file in each iteration directory which contains what each agent actually did, and the score it received. -->
		<param name="writeExperiencedPlans" value="false" />
		<parameterset type="scoringParameters" >
			<param name="earlyDeparture" value="-0.0" />
			<param name="lateArrival" value="-18.0" />
			<param name="marginalUtilityOfMoney" value="1.0" />
			<param name="performing" value="6.0" />
			<param name="subpopulation" value="null" />
			<param name="utilityOfLineSwitch" value="-1.0" />
			<param name="waiting" value="-0.0" />
			<param name="waitingPt" value="-6.0" />
			<parameterset type="activityParams" >
				<param name="activityType" value="car interaction" />
				<param name="closingTime" value="undefined" />
				<param name="earliestEndTime" value="undefined" />
				<param name="latestStartTime" value="undefined" />
				<param name="minimalDuration" value="undefined" />
				<param name="openingTime" value="undefined" />
				<param name="priority" value="1.0" />
				<param name="scoringThisActivityAtAll" value="false" />
				<!-- typical duration of activity.  needs to be defined and non-zero.  in sec. -->
				<param name="typicalDuration" value="undefined" />
				<!-- method to compute score at typical duration.  Options: | uniform | relative | Use uniform for backwards compatibility (all activities same score; higher proba to drop long acts). -->
				<param name="typicalDurationScoreComputation" value="relative" />
			</parameterset>
			<parameterset type="activityParams" >
				<param name="activityType" value="pt interaction" />
				<param name="closingTime" value="undefined" />
				<param name="earliestEndTime" value="undefined" />
				<param name="latestStartTime" value="undefined" />
				<param name="minimalDuration" value="undefined" />
				<param name="openingTime" value="undefined" />
				<param name="priority" value="1.0" />
				<param name="scoringThisActivityAtAll" value="false" />
				<param name="typicalDuration" value="undefined" />
				<param name="typicalDurationScoreComputation" value="relative" />
			</parameterset>
			<parameterset type="activityParams" >
				<param name="activityType" value="bike interaction" />
				<param name="closingTime" value="undefined" />
				<param name="earliestEndTime" value="undefined" />
				<param name="latestStartTime" value="undefined" />
				<param name="minimalDuration" value="undefined" />
				<param name="openingTime" value="undefined" />
				<param name="priority" value="1.0" />
				<param name="scoringThisActivityAtAll" value="false" />
				<param name="typicalDuration" value="undefined" />
				<param name="typicalDurationScoreComputation" value="relative" />
			</parameterset>
			<parameterset type="activityParams" >
				<param name="activityType" value="other interaction" />
				<param name="closingTime" value="undefined" />
				<param name="earliestEndTime" value="undefined" />
				<param name="latestStartTime" value="undefined" />
				<param name="minimalDuration" value="undefined" />
				<param name="openingTime" value="undefined" />
				<param name="priority" value="1.0" />
				<param name="scoringThisActivityAtAll" value="false" />
				<param name="typicalDuration" value="undefined" />
				<param name="typicalDurationScoreComputation" value="relative" />
			</parameterset>
			<parameterset type="activityParams" >
				<param name="activityType" value="walk interaction" />
				<param name="closingTime" value="undefined" />
				<param name="earliestEndTime" value="undefined" />
				<param name="latestStartTime" value="undefined" />
				<param name="minimalDuration" value="undefined" />
				<param name="openingTime" value="undefined" />
				<param name="priority" value="1.0" />
				<param name="scoringThisActivityAtAll" value="false" />
				<param name="typicalDuration" value="undefined" />
				<param name="typicalDurationScoreComputation" value="relative" />
			</parameterset>
			<parameterset type="activityParams" >
				<param name="activityType" value="dummy" />
				<param name="closingTime" value="undefined" />
				<param name="earliestEndTime" value="undefined" />
				<param name="latestStartTime" value="undefined" />
				<param name="minimalDuration" value="undefined" />
				<param name="openingTime" value="undefined" />
				<param name="priority" value="1.0" />
				<param name="scoringThisActivityAtAll" value="true" />
				<param name="typicalDuration" value="24:00:00" />
				<param name="typicalDurationScoreComputation" value="relative" />
			</parameterset>
			<parameterset type="modeParams" >
				<!-- [utils] alternative-specific constant.  Normally per trip, but that is probably buggy for multi-leg trips. -->
				<param name="constant" value="0.0" />
				<!-- [money] daily monetary constant. default=0 to be backwards compatible -->
				<param name="dailyMonetaryConstant" value="0.0" />
				<!-- [utils] daily utility constant. default=0 to be backwards compatible -->
				<param name="dailyUtilityConstant" value="0.0" />
				<!-- [utils/m] utility of traveling (e.g. walking or driving) per m, normally negative.  this is on top of the time (dis)utility. -->
				<param name="marginalUtilityOfDistance_util_m" value="0.0" />
				<!-- [utils/hr] additional marginal utility of traveling.  normally negative.  this comes on top of the opportunity cost of time -->
				<param name="marginalUtilityOfTraveling_util_hr" value="-6.0" />
				<param name="mode" value="car" />
				<!-- [unit_of_money/m] conversion of distance into money. Normally negative. -->
				<param name="monetaryDistanceRate" value="0.0" />
			</parameterset>
			<parameterset type="modeParams" >
				<param name="constant" value="0.0" />
				<param name="dailyMonetaryConstant" value="0.0" />
				<param name="dailyUtilityConstant" value="0.0" />
				<param name="marginalUtilityOfDistance_util_m" value="0.0" />
				<param name="marginalUtilityOfTraveling_util_hr" value="-6.0" />
				<param name="mode" value="pt" />
				<param name="monetaryDistanceRate" value="0.0" />
			</parameterset>
			<parameterset type="modeParams" >
				<param name="constant" value="0.0" />
				<param name="dailyMonetaryConstant" value="0.0" />
				<param name="dailyUtilityConstant" value="0.0" />
				<param name="marginalUtilityOfDistance_util_m" value="0.0" />
				<param name="marginalUtilityOfTraveling_util_hr" value="-6.0" />
				<param name="mode" value="walk" />
				<param name="monetaryDistanceRate" value="0.0" />
			</parameterset>
			<parameterset type="modeParams" >
				<param name="constant" value="0.0" />
				<param name="dailyMonetaryConstant" value="0.0" />
				<param name="dailyUtilityConstant" value="0.0" />
				<param name="marginalUtilityOfDistance_util_m" value="0.0" />
				<param name="marginalUtilityOfTraveling_util_hr" value="-6.0" />
				<param name="mode" value="bike" />
				<param name="monetaryDistanceRate" value="0.0" />
			</parameterset>
			<parameterset type="modeParams" >
				<param name="constant" value="0.0" />
				<param name="dailyMonetaryConstant" value="0.0" />
				<param name="dailyUtilityConstant" value="0.0" />
				<param name="marginalUtilityOfDistance_util_m" value="0.0" />
				<param name="marginalUtilityOfTraveling_util_hr" value="-6.0" />
				<param name="mode" value="ride" />
				<param name="monetaryDistanceRate" value="0.0" />
			</parameterset>
			<parameterset type="modeParams" >
				<param name="constant" value="0.0" />
				<param name="dailyMonetaryConstant" value="0.0" />
				<param name="dailyUtilityConstant" value="0.0" />
				<param name="marginalUtilityOfDistance_util_m" value="0.0" />
				<param name="marginalUtilityOfTraveling_util_hr" value="-6.0" />
				<param name="mode" value="other" />
				<param name="monetaryDistanceRate" value="0.0" />
			</parameterset>
			<parameterset type="modeParams" >
				<param name="constant" value="0.0" />
				<param name="dailyMonetaryConstant" value="0.0" />
				<param name="dailyUtilityConstant" value="0.0" />
				<param name="marginalUtilityOfDistance_util_m" value="0.0" />
				<param name="marginalUtilityOfTraveling_util_hr" value="-6.0" />
				<param name="mode" value="taxi_A" />
				<param name="monetaryDistanceRate" value="0.0" />
			</parameterset>
			<parameterset type="modeParams" >
				<param name="constant" value="0.0" />
				<param name="dailyMonetaryConstant" value="0.0" />
				<param name="dailyUtilityConstant" value="0.0" />
				<param name="marginalUtilityOfDistance_util_m" value="0.0" />
				<param name="marginalUtilityOfTraveling_util_hr" value="-6.0" />
				<param name="mode" value="taxi_B" />
				<param name="monetaryDistanceRate" value="0.0" />
			</parameterset>
			<parameterset type="modeParams" >
				<param name="constant" value="0.0" />
				<param name="dailyMonetaryConstant" value="0.0" />
				<param name="dailyUtilityConstant" value="0.0" />
				<param name="marginalUtilityOfDistance_util_m" value="0.0" />
				<param name="marginalUtilityOfTraveling_util_hr" value="-6.0" />
				<param name="mode" value="taxi_C" />
				<param name="monetaryDistanceRate" value="0.0" />
			</parameterset>
		</parameterset>
	</module>
	<module name="plans" >
		<!-- String: minOfDurationAndEndTime tryEndTimeThenDuration endTimeOnly. Anything besides minOfDurationAndEndTime will internally use a different (simpler) version of the TimeAllocationMutator. -->
		<param name="activityDurationInterpretation" value="tryEndTimeThenDuration" />
		<!-- The Coordinates Reference System in which the coordinates are expressed in the input file. At import, the coordinates will be converted to the coordinate system defined in "global", and willbe converted back at export. If not specified, no conversion happens. -->
		<param name="inputCRS" value="null" />
		<param name="inputPersonAttributesFile" value="null" />
		<param name="inputPlansFile" value="multi_mode_one_taxi_population.xml" />
		<!-- Defines how routes are stored in memory. Currently supported: LinkNetworkRoute, CompressedNetworkRoute. -->
		<param name="networkRouteType" value="LinkNetworkRoute" />
		<!-- (not tested) will remove plan attributes that are presumably not used, such as activityStartTime. default=false. Use with Caution! -->
		<param name="removingUnnecessaryPlanAttributes" value="false" />
		<!-- Name of the (Object)Attribute defining the subpopulation to which pertains a Person (as freight, through traffic, etc.). The attribute must be of String type.  Change away from default only in desperate situations. -->
		<param name="subpopulationAttributeName" value="subpopulation" />
	</module>
	<module name="planscalcroute" >
		<!-- All the modes for which the router is supposed to generate network routes (like car) -->
		<param name="networkModes" value="car" />
		<parameterset type="teleportedModeParameters" >
			<param name="beelineDistanceFactor" value="1.3" />
			<param name="mode" value="bike" />
			<!-- Free-speed factor for a teleported mode. Travel time = teleportedModeFreespeedFactor * <freespeed car travel time>. Insert a line like this for every such mode. Please do not set teleportedModeFreespeedFactor as well as teleportedModeSpeed for the same mode, but if you do, +teleportedModeFreespeedFactor wins over teleportedModeSpeed. -->
			<param name="teleportedModeFreespeedFactor" value="null" />
			<!-- Speed for a teleported mode. Travel time = (<beeline distance> * beelineDistanceFactor) / teleportedModeSpeed. Insert a line like this for every such mode. -->
			<param name="teleportedModeSpeed" value="4.166666666666667" />
		</parameterset>
		<parameterset type="teleportedModeParameters" >
			<param name="beelineDistanceFactor" value="1.3" />
			<param name="mode" value="walk" />
			<param name="teleportedModeFreespeedFactor" value="null" />
			<param name="teleportedModeSpeed" value="0.8333333333333333" />
		</parameterset>
		<parameterset type="teleportedModeParameters" >
			<param name="beelineDistanceFactor" value="1.3" />
			<param name="mode" value="access_walk" />
			<param name="teleportedModeFreespeedFactor" value="null" />
			<param name="teleportedModeSpeed" value="0.8333333333333333" />
		</parameterset>
		<parameterset type="teleportedModeParameters" >
			<param name="beelineDistanceFactor" value="1.3" />
			<param name="mode" value="egress_walk" />
			<param name="teleportedModeFreespeedFactor" value="null" />
			<param name="teleportedModeSpeed" value="0.8333333333333333" />
		</parameterset>
		<parameterset type="teleportedModeParameters" >
			<param name="beelineDistanceFactor" value="1.3" />
			<param name="mode" value="undefined" />
			<param name="teleportedModeFreespeedFactor" value="null" />
			<param name="teleportedModeSpeed" value="13.88888888888889" />
		</parameterset>
		<parameterset type="teleportedModeParameters" >
			<param name="beelineDistanceFactor" value="1.3" />
			<param name="mode" value="ride" />
			<param name="teleportedModeFreespeedFactor" value="1.0" />
			<param name="teleportedModeSpeed" value="null" />
		</parameterset>
		<parameterset type="teleportedModeParameters" >
			<param name="beelineDistanceFactor" value="1.3" />
			<param name="mode" value="pt" />
			<param name="teleportedModeFreespeedFactor" value="2.0" />
			<param name="teleportedModeSpeed" value="null" />
		</parameterset>
	</module>
	<module name="ptCounts" >
		<!-- factor by which to re-scale the simulated values.  necessary when simulation runs with something different from 100%.  needs to be adapted manually -->
		<param name="countsScaleFactor" value="1.0" />
		<!-- distance to distanceFilterCenterNode to include counting stations. The unit of distance is the Euclidean distance implied by the coordinate system -->
		<param name="distanceFilter" value="null" />
		<!-- node id for center node of distance filter -->
		<param name="distanceFilterCenterNode" value="null" />
		<!-- input file containing the alighting (getting off) counts for pt -->
		<param name="inputAlightCountsFile" value="null" />
		<!-- input file containing the boarding (getting on) counts for pt -->
		<param name="inputBoardCountsFile" value="null" />
		<!-- input file containing the occupancy counts for pt -->
		<param name="inputOccupancyCountsFile" value="null" />
		<!-- possible values: `html', `kml', `txt', `all' -->
		<param name="outputformat" value="null" />
		<!-- every how many iterations (starting with 0) counts comparisons are generated -->
		<param name="ptCountsInterval" value="10" />
	</module>
	<module name="qsim" >
		<param name="endTime" value="undefined" />
		<param name="flowCapacityFactor" value="1.0" />
		<!-- decides if waiting vehicles enter the network after or before the already driving vehicles were moved. Default: false -->
		<param name="insertingWaitingVehiclesBeforeDrivingVehicles" value="true" />
		<!-- If link dynamics is set as SeepageQ, set to false if all seep modes should perform seepage. Default is true (better option). -->
		<param name="isRestrictingSeepage" value="true" />
		<!-- If link dynamics is set as SeepageQ, set to true if seep mode do not consumes any space on the link. Default is false. -->
		<param name="isSeepModeStorageFree" value="false" />
		<!-- default: FIFO; options: FIFO PassingQ SeepageQ -->
		<param name="linkDynamics" value="FIFO" />
		<!-- The (initial) width of the links of the network. Use positive floating point values. This is used only for visualisation. -->
		<param name="linkWidth" value="30.0" />
		<!-- [comma-separated list] Defines which modes are congested modes. Technically, these are the modes that the departure handler of the netsimengine handles.  Effective cell size, effective lane width, flow capacity factor, and storage capacity factor need to be set with diligence.  Need to be vehicular modes to make sense. -->
		<param name="mainMode" value="car" />
		<!-- Shortens a link in the visualization, i.e. its start and end point are moved into towards the center. Does not affect traffic flow.  -->
		<param name="nodeOffset" value="0.0" />
		<!-- Number of threads used for the QSim.  Note that this setting is independent from the "global" threads setting.  In contrast to earlier versions, the non-parallel special version is no longer there. -->
		<param name="numberOfThreads" value="1" />
		<!-- Boolean. `true': stuck vehicles are removed, aborting the plan; `false': stuck vehicles are forced into the next link. `false' is probably the better choice. -->
		<param name="removeStuckVehicles" value="false" />
		<!-- If link dynamics is set as SeepageQ, set a seep mode. Default is bike. -->
		<param name="seepMode" value="bike" />
		<!-- Possible values: minOfEndtimeAndMobsimFinished, onlyUseEndtime -->
		<param name="simEndtimeInterpretation" value="null" />
		<!-- Options: maxOfStarttimeAndEarliestActivityEnd onlyUseStarttime  -->
		<param name="simStarttimeInterpretation" value="onlyUseStarttime" />
		<!-- snapshotStyle. One of: equiDist queue withHoles withHolesAndShowHoles kinematicWaves  -->
		<param name="snapshotStyle" value="queue" />
		<param name="snapshotperiod" value="00:00:00" />
		<param name="startTime" value="undefined" />
		<param name="storageCapacityFactor" value="1.0" />
		<!-- time in seconds.  Time after which the frontmost vehicle on a link is called `stuck' if it does not move. -->
		<param name="stuckTime" value="10.0" />
		<param name="timeStepSize" value="00:00:01" />
		<!-- options: queue withHoles kinematicWaves  -->
		<param name="trafficDynamics" value="queue" />
		<!-- Set this parameter to true if lanes should be used, false if not. -->
		<param name="useLanes" value="false" />
		<!-- If a route does not reference a vehicle, agents will use the vehicle with the same id as their own. -->
		<param name="usePersonIdForMissingVehicleId" value="true" />
		<!-- If false, the qsim accumulates fractional flows up to one flow unit in every time step.  If true, flows are updated only if an agent wants to enter the link or an agent is added to buffer. Default is true. -->
		<param name="usingFastCapacityUpdate" value="true" />
		<!-- if the qsim should use as many runners as there are threads (Christoph's dissertation version) or more of them, together with a thread pool (seems to be faster in some situations, but is not tested). -->
		<param name="usingThreadpool" value="true" />
		<!-- Defines what happens if an agent wants to depart, but the specified vehicle is not available. One of: teleport wait exception  -->
		<param name="vehicleBehavior" value="teleport" />
		<!-- If vehicles should all be the same default vehicle, or come from the vehicles file, or something else.  Possible values:  defaultVehicle modeVehicleTypesFromVehiclesData fromVehiclesData -->
		<param name="vehiclesSource" value="defaultVehicle" />
	</module>
	<module name="strategy" >
		<!-- the external executable will be called with a config file as argument.  This is the pathname to a possible skeleton config, to which additional information will be added.  Can be null. -->
		<param name="ExternalExeConfigTemplate" value="null" />
		<!-- time out value (in seconds) after which matsim will consider the external strategy as failed -->
		<param name="ExternalExeTimeOut" value="3600" />
		<!-- root directory for temporary files generated by the external executable. Provided as a service; I don't think this is used by MATSim. -->
		<param name="ExternalExeTmpFileRootDir" value="null" />
		<!-- fraction of iterations where innovative strategies are switched off.  Something like 0.8 should be good.  E.g. if you run from iteration 400 to iteration 500, innovation is switched off at iteration 480 -->
		<param name="fractionOfIterationsToDisableInnovation" value="Infinity" />
		<!-- maximum number of plans per agent.  ``0'' means ``infinity''.  Currently (2010), ``5'' is a good number -->
		<param name="maxAgentPlanMemorySize" value="1" />
		<!-- strategyName of PlanSelector for plans removal.  Possible defaults: WorstPlanSelector SelectRandom SelectExpBetaForRemoval ChangeExpBetaForRemoval PathSizeLogitSelectorForRemoval . The current default, WorstPlanSelector is not a good choice from a discrete choice theoretical perspective. Alternatives, however, have not been systematically tested. kai, feb'12 -->
		<param name="planSelectorForRemoval" value="WorstPlanSelector" />
		<parameterset type="strategysettings" >
			<!-- iteration after which strategy will be disabled.  most useful for ``innovative'' strategies (new routes, new times, ...). Normally, better use fractionOfIterationsToDisableInnovation -->
			<param name="disableAfterIteration" value="-1" />
			<!-- path to external executable (if applicable) -->
			<param name="executionPath" value="null" />
			<!-- strategyName of strategy.  Possible default names: SelectRandomBestScoreKeepLastSelectedChangeExpBetaSelectExpBetaSelectPathSizeLogit (selectors), ReRouteTimeAllocationMutatorTimeAllocationMutator_ReRouteChangeSingleTripModeChangeTripModeSubtourModeChoice (innovative strategies). -->
			<param name="strategyName" value="KeepLastSelected" />
			<!-- subpopulation to which the strategy applies. "null" refers to the default population, that is, the set of persons for which no explicit subpopulation is defined (ie no subpopulation attribute) -->
			<param name="subpopulation" value="null" />
			<!-- weight of a strategy: for each agent, a strategy will be selected with a probability proportional to its weight -->
			<param name="weight" value="1.0" />
		</parameterset>
	</module>
	<module name="subtourModeChoice" >
		<!-- Only for backwards compatibility.  Defines if only trips from modes list should change mode, or all trips.  Options: fromAllModesToSpecifiedModes fromSpecifiedModesToSpecifiedModes  -->
		<param name="behavior" value="fromSpecifiedModesToSpecifiedModes" />
		<!-- Defines the chain-based modes, seperated by commas -->
		<param name="chainBasedModes" value="car,bike" />
		<!-- Defines whether car availability must be considered or not. A agent has no car only if it has no license, or never access to a car -->
		<param name="considerCarAvailability" value="false" />
		<!-- Defines all the modes available, including chain-based modes, seperated by commas -->
		<param name="modes" value="car,pt,bike,walk" />
	</module>
	<module name="transit" >
		<!-- The Coordinates Reference System in which the coordinates are expressed in the input file. At import, the coordinates will be converted to the coordinate system defined in "global", and willbe converted back at export. If not specified, no conversion happens. -->
		<param name="inputScheduleCRS" value="null" />
		<!-- Optional input file containing additional attributes for transit lines, stored as ObjectAttributes. -->
		<param name="transitLinesAttributesFile" value="null" />
		<!-- Comma-separated list of transportation modes that are handled as transit. Defaults to 'pt'. -->
		<param name="transitModes" value="pt" />
		<!-- Input file containing the transit schedule to be simulated. -->
		<param name="transitScheduleFile" value="null" />
		<!-- Optional input file containing additional attributes for transit stop facilities, stored as ObjectAttributes. -->
		<param name="transitStopsAttributesFile" value="null" />
		<!-- Set this parameter to true if transit should be simulated, false if not. -->
		<param name="useTransit" value="false" />
		<!-- Input file containing the vehicles used by the departures in the transit schedule. -->
		<param name="vehiclesFile" value="null" />
	</module>
	<module name="transitRouter" >
		<!-- additional time the router allocates when a line switch happens. Can be interpreted as a 'safety' time that agents need to safely transfer from one line to another -->
		<param name="additionalTransferTime" value="0.0" />
		<!-- Factor with which direct walk generalized cost is multiplied before it is compared to the pt generalized cost.  Set to a very high value to reduce direct walk results. -->
		<param name="directWalkFactor" value="1.0" />
		<!-- step size to increase searchRadius if no stops are found -->
		<param name="extensionRadius" value="200.0" />
		<!-- maximum beeline distance between stops that agents could transfer to by walking -->
		<param name="maxBeelineWalkConnectionDistance" value="100.0" />
		<!-- the radius in which stop locations are searched, given a start or target coordinate -->
		<param name="searchRadius" value="1000.0" />
	</module>
	<module name="travelTimeCalculator" >
		<!-- (only for backwards compatibility; only used if separateModes==false && + filterModes==true)  Transport modes that will be respected by the travel time collector. 'car' is default which includes also buses from the pt simulation module. -->
		<param name="analyzedModes" value="car" />
		<param name="calculateLinkToLinkTravelTimes" value="false" />
		<param name="calculateLinkTravelTimes" value="true" />
		<!-- (only for backwards compatiblity; only used if separateModes==false)  Only modes included in analyzedModes are included. -->
		<param name="filterModes" value="false" />
		<!-- The lenght (in sec) of the time period that is splited into time bins; an additional time bin is created to aggregate all travel times collected after maxTime -->
		<param name="maxTime" value="108000" />
		<!-- (only for backwards compatibility) If false, link travel times are measured and aggregated over all vehicles using the link. -->
		<param name="separateModes" value="true" />
		<!-- How to deal with congested time bins that have no link entry events. `optimistic' assumes free speed (too optimistic); 'experimental_LastMile' is experimental and probably too pessimistic. -->
		<param name="travelTimeAggregator" value="optimistic" />
		<!-- The size of the time bin (in sec) into which the link travel times are aggregated for the router -->
		<param name="travelTimeBinSize" value="900" />
		<!-- possible values: TravelTimeCalculatorArray TravelTimeCalculatorHashMap  -->
		<param name="travelTimeCalculator" value="TravelTimeCalculatorArray" />
		<!-- How to deal with link entry times at different positions during the time bin. Currently supported: average, linearinterpolation -->
		<param name="travelTimeGetter" value="average" />
	</module>
	<module name="vehicles" >
		<param name="vehiclesFile" value="null" />
	</module>
	<module name="vspExperimental" >
		<!-- (do not use except of you have to) There was a problem with pt interaction scoring.  Some people solved it by overwriting the parameters of the pt interaction activity type.  Doing this now throws an Exception.  If you still insist on doing this, set the following to true. -->
		<param name="isAbleToOverwritePtInteractionParams" value="false" />
		<param name="isGeneratingBoardingDeniedEvent" value="false" />
		<!-- if an approximation of the opportunity cost of time is included into the radius calculation for location choice.`true' will be faster, but it is an approximation.  Default is `true'; `false' is available for backwards compatibility. -->
		<param name="isUsingOpportunityCostOfTimeForLocationChoice" value="true" />
		<param name="logitScaleParamForPlansRemoval" value="1.0" />
		<!-- Options: | ignore | info | warn | abort | .  When violating VSP defaults, this results in nothing, logfile infos, logfile warnings, or aborts.  Members of VSP should use `abort' or talk to kai. -->
		<param name="vspDefaultsCheckingLevel" value="ignore" />
		<!-- if true then writes output_events in output directory.  default is `false'. Will only work when lastIteration is multiple of events writing interval -->
		<param name="writingOutputEvents" value="true" />
	</module>

</config>

2020-08-14 04:16:18,684  INFO ControlerUtils:63 Complete config dump done.
2020-08-14 04:16:18,684  INFO ControlerUtils:64 Checking consistency of config...
2020-08-14 04:16:18,684  INFO PlanCalcScoreConfigGroup$ScoringParameterSet:1492 NO OPENING OR CLOSING TIMES DEFINED!

There is no activity type that has an opening *and* closing time (or opening time and late penalty) defined.
This usually means that the activity chains can be shifted by an arbitrary
number of hours without having an effect on the score of the plans, and thus
resulting in wrong results / traffic patterns.
If you are using MATSim without time adaptation, you can ignore this warning.


2020-08-14 04:16:18,684  INFO VspConfigConsistencyCheckerImpl:58 NOT running vsp config consistency check because vsp defaults checking level is set to IGNORE
2020-08-14 04:16:18,685  INFO ControlerUtils:66 Checking consistency of config done.
2020-08-14 04:16:18,688 DEBUG NetworkRoutingProvider:75 requesting network routing module with routingMode=car;	mode=car
2020-08-14 04:16:18,689 DEBUG NetworkRoutingProvider:75 requesting network routing module with routingMode=car;	mode=car
2020-08-14 04:16:18,694  INFO Counter:70 [PersonPrepareForSim] handled person # 1
2020-08-14 04:16:18,694  INFO Counter:70 [PersonPrepareForSim] handled person # 2
2020-08-14 04:16:18,695  INFO Counter:70 [PersonPrepareForSim] handled person # 4
2020-08-14 04:16:18,695  INFO Counter:70 [PersonPrepareForSim] handled person # 8
2020-08-14 04:16:18,695  INFO Counter:76 [PersonPrepareForSim] handled person # 10
2020-08-14 04:16:18,696  INFO Counter:70 [VehiclesImpl] added vehicle # 1
2020-08-14 04:16:18,696  INFO Counter:70 [VehiclesImpl] added vehicle # 2
2020-08-14 04:16:18,696  INFO Counter:70 [VehiclesImpl] added vehicle # 4
2020-08-14 04:16:18,696  INFO Counter:70 [VehiclesImpl] added vehicle # 8
2020-08-14 04:16:18,696  INFO AbstractController:123 ###################################################
2020-08-14 04:16:18,696  INFO AbstractController:124 ### ITERATION 0 BEGINS
2020-08-14 04:16:18,698  INFO ControlerListenerManagerImpl:145 calling notifyIterationStarts on org.matsim.analysis.LegHistogramListener
2020-08-14 04:16:18,698  INFO ControlerListenerManagerImpl:145 calling notifyIterationStarts on org.matsim.analysis.LinkStatsControlerListener
2020-08-14 04:16:18,698  INFO ControlerListenerManagerImpl:145 calling notifyIterationStarts on org.matsim.core.replanning.ReplanningContextImpl
2020-08-14 04:16:18,698  INFO ControlerListenerManagerImpl:145 calling notifyIterationStarts on org.matsim.core.scoring.ExperiencedPlansServiceImpl$1
2020-08-14 04:16:18,698  INFO ControlerListenerManagerImpl:145 calling notifyIterationStarts on org.matsim.core.scoring.ScoringFunctionsForPopulation$1
2020-08-14 04:16:18,706  INFO ControlerListenerManagerImpl:148 [it.0] all ControlerIterationStartsListeners called.
2020-08-14 04:16:18,707  INFO ControlerListenerManagerImpl:224 calling notifyBeforeMobsim on org.matsim.core.controler.corelisteners.EventsHandlingImpl
2020-08-14 04:16:18,707  INFO EventsManagerImpl:170 resetting Event-Handlers
2020-08-14 04:16:18,707  INFO EventsManagerImpl:177   org.matsim.core.trafficmonitoring.TravelTimeCalculator
2020-08-14 04:16:18,707  INFO EventsManagerImpl:177   org.matsim.core.scoring.EventsToLegsAndActivities
2020-08-14 04:16:18,707  INFO EventsManagerImpl:177   org.matsim.analysis.VolumesAnalyzer
2020-08-14 04:16:18,707  INFO EventsManagerImpl:177   org.matsim.core.events.algorithms.Vehicle2DriverEventHandler
2020-08-14 04:16:18,707  INFO EventsManagerImpl:177   org.matsim.core.scoring.ScoringFunctionsForPopulation
2020-08-14 04:16:18,707  INFO EventsManagerImpl:177   org.matsim.analysis.LegHistogram
2020-08-14 04:16:18,708  INFO EventsManagerImpl:177   org.matsim.analysis.CalcLegTimes
2020-08-14 04:16:18,709  INFO EventsManagerImpl:144 adding Event-Handler: org.matsim.core.events.algorithms.EventWriterXML
2020-08-14 04:16:18,709  INFO EventsManagerImpl:148   org.matsim.core.events.algorithms.EventWriter
2020-08-14 04:16:18,710  INFO EventsManagerImpl:148   org.matsim.core.events.handler.BasicEventHandler
2020-08-14 04:16:18,710  INFO EventsManagerImpl:207     > org.matsim.api.core.v01.events.Event
2020-08-14 04:16:18,710  INFO EventsManagerImpl:156 
2020-08-14 04:16:18,710  INFO EventsManagerImpl:144 adding Event-Handler: org.matsim.core.events.algorithms.EventWriterXML
2020-08-14 04:16:18,710  INFO EventsManagerImpl:148   org.matsim.core.events.algorithms.EventWriter
2020-08-14 04:16:18,710  INFO EventsManagerImpl:148   org.matsim.core.events.handler.BasicEventHandler
2020-08-14 04:16:18,710  INFO EventsManagerImpl:207     > org.matsim.api.core.v01.events.Event
2020-08-14 04:16:18,710  INFO EventsManagerImpl:156 
2020-08-14 04:16:18,710  INFO ControlerListenerManagerImpl:224 calling notifyBeforeMobsim on org.matsim.core.controler.corelisteners.PlansDumpingImpl
2020-08-14 04:16:18,710  INFO PlansDumpingImpl:76 dumping plans...
2020-08-14 04:16:18,718  INFO Counter:70 [PopulationWriter] dumped person # 1
2020-08-14 04:16:18,718  INFO Counter:70 [PopulationWriter] dumped person # 2
2020-08-14 04:16:18,718  INFO Counter:70 [PopulationWriter] dumped person # 4
2020-08-14 04:16:18,719  INFO Counter:70 [PopulationWriter] dumped person # 8
2020-08-14 04:16:18,719  INFO PopulationWriter:139 Population written to: test/output/multi_mode_one_taxi/ITERS/it.0/0.plans.xml.gz
2020-08-14 04:16:18,720  INFO Counter:76 [PopulationWriter] dumped person # 10
2020-08-14 04:16:18,720  INFO PlansDumpingImpl:93 finished plans dump.
2020-08-14 04:16:18,720  INFO ControlerListenerManagerImpl:229 calling notifyBeforeMobsim on org.matsim.core.population.VspPlansCleaner
2020-08-14 04:16:18,720  INFO ControlerListenerManagerImpl:232 [it.0] all ControlerBeforeMobsimListeners called.
2020-08-14 04:16:18,721 DEBUG NetworkRoutingProvider:75 requesting network routing module with routingMode=car;	mode=car
2020-08-14 04:16:18,722 DEBUG NetworkRoutingProvider:75 requesting network routing module with routingMode=car;	mode=car
2020-08-14 04:16:18,723  INFO Counter:70 [PersonPrepareForSim] handled person # 1
2020-08-14 04:16:18,723  INFO Counter:70 [PersonPrepareForSim] handled person # 2
2020-08-14 04:16:18,723  INFO Counter:70 [PersonPrepareForSim] handled person # 4
2020-08-14 04:16:18,724  INFO Counter:70 [PersonPrepareForSim] handled person # 8
2020-08-14 04:16:18,724  INFO Counter:76 [PersonPrepareForSim] handled person # 10
2020-08-14 04:16:18,870  INFO MobsimListenerManager:49 calling addQueueSimulationListener
2020-08-14 04:16:18,871  INFO MobsimListenerManager:53   assigned class org.matsim.core.mobsim.framework.listeners.MobsimListener to interface org.matsim.core.mobsim.framework.listeners.MobsimBeforeCleanupListener
2020-08-14 04:16:18,871  INFO MobsimListenerManager:53   assigned class org.matsim.core.mobsim.framework.listeners.MobsimListener to interface org.matsim.core.mobsim.framework.listeners.MobsimListener
2020-08-14 04:16:18,871  INFO MobsimListenerManager:53   assigned class org.matsim.core.mobsim.framework.listeners.MobsimListener to interface org.matsim.contrib.dvrp.trafficmonitoring.DvrpOfflineTravelTimeEstimator
2020-08-14 04:16:18,872  INFO MobsimListenerManager:49 calling addQueueSimulationListener
2020-08-14 04:16:18,872  INFO MobsimListenerManager:53   assigned class org.matsim.core.mobsim.framework.listeners.MobsimListener to interface org.matsim.core.mobsim.framework.listeners.MobsimBeforeCleanupListener
2020-08-14 04:16:18,872  INFO MobsimListenerManager:53   assigned class org.matsim.core.mobsim.framework.listeners.MobsimListener to interface org.matsim.core.mobsim.framework.listeners.MobsimListener
2020-08-14 04:16:18,872  INFO MobsimListenerManager:53   assigned class org.matsim.core.mobsim.framework.listeners.MobsimListener to interface org.matsim.core.mobsim.framework.listeners.MobsimInitializedListener
2020-08-14 04:16:18,872  INFO MobsimListenerManager:53   assigned class org.matsim.core.mobsim.framework.listeners.MobsimListener to interface org.matsim.vis.snapshotwriters.SnapshotWriterManager
2020-08-14 04:16:18,872  INFO MobsimListenerManager:53   assigned class org.matsim.core.mobsim.framework.listeners.MobsimListener to interface org.matsim.core.mobsim.framework.listeners.MobsimAfterSimStepListener
2020-08-14 04:16:18,892  INFO PreProcessDijkstra:118 nodes in dead ends: 26 (total nodes: 62). Done in 1 ms
2020-08-14 04:16:18,952  INFO PreProcessDijkstra:118 nodes in dead ends: 26 (total nodes: 62). Done in 0 ms
2020-08-14 04:16:18,955  INFO PreProcessDijkstra:118 nodes in dead ends: 26 (total nodes: 62). Done in 1 ms
2020-08-14 04:16:18,975  INFO QSimProvider:123 Added DepartureHandler class org.matsim.core.mobsim.qsim.qnetsimengine.VehicularDepartureHandler
2020-08-14 04:16:18,975  INFO QSimProvider:111 Added MobsimEngine class org.matsim.core.mobsim.qsim.qnetsimengine.QNetsimEngine
2020-08-14 04:16:18,975  INFO QSimProvider:111 Added MobsimEngine class org.matsim.core.mobsim.qsim.DefaultTeleportationEngine
2020-08-14 04:16:18,975  INFO QSimProvider:123 Added DepartureHandler class org.matsim.core.mobsim.qsim.DefaultTeleportationEngine
2020-08-14 04:16:18,976  INFO QSimProvider:129 Added AgentSource class org.matsim.core.mobsim.qsim.agents.PopulationAgentSource
2020-08-14 04:16:18,976  INFO MobsimListenerManager:49 calling addQueueSimulationListener
2020-08-14 04:16:18,976  INFO MobsimListenerManager:53   assigned class org.matsim.core.mobsim.framework.listeners.MobsimListener to interface org.matsim.core.mobsim.framework.listeners.MobsimBeforeSimStepListener
2020-08-14 04:16:18,976  INFO MobsimListenerManager:53   assigned class org.matsim.core.mobsim.framework.listeners.MobsimListener to interface org.matsim.core.mobsim.framework.listeners.MobsimListener
2020-08-14 04:16:18,976  INFO MobsimListenerManager:53   assigned class org.matsim.core.mobsim.framework.listeners.MobsimListener to interface org.matsim.core.mobsim.qsim.messagequeueengine.MessageQueueEngine
2020-08-14 04:16:18,976  INFO QSimProvider:135 Added MobsimListener class org.matsim.core.mobsim.qsim.messagequeueengine.MessageQueueEngine
2020-08-14 04:16:18,976  INFO QSimProvider:111 Added MobsimEngine class org.matsim.contrib.dynagent.run.DynActivityEngine
2020-08-14 04:16:18,976  INFO QSimProvider:117 Added Activityhandler class org.matsim.contrib.dynagent.run.DynActivityEngine
2020-08-14 04:16:18,977  INFO MobsimListenerManager:49 calling addQueueSimulationListener
2020-08-14 04:16:18,977  INFO MobsimListenerManager:53   assigned class org.matsim.core.mobsim.framework.listeners.MobsimListener to interface org.matsim.core.mobsim.framework.listeners.MobsimBeforeCleanupListener
2020-08-14 04:16:18,977  INFO MobsimListenerManager:53   assigned class org.matsim.core.mobsim.framework.listeners.MobsimListener to interface org.matsim.contrib.dvrp.fleet.VehicleStartLinkToLastLinkUpdater
2020-08-14 04:16:18,977  INFO MobsimListenerManager:53   assigned class org.matsim.core.mobsim.framework.listeners.MobsimListener to interface org.matsim.core.mobsim.framework.listeners.MobsimListener
2020-08-14 04:16:18,977  INFO QSimProvider:135 Added MobsimListener class org.matsim.contrib.dvrp.fleet.VehicleStartLinkToLastLinkUpdater
2020-08-14 04:16:18,978  INFO MobsimListenerManager:49 calling addQueueSimulationListener
2020-08-14 04:16:18,978  INFO MobsimListenerManager:53   assigned class org.matsim.core.mobsim.framework.listeners.MobsimListener to interface org.matsim.core.mobsim.framework.listeners.MobsimListener
2020-08-14 04:16:18,978  INFO MobsimListenerManager:53   assigned class org.matsim.core.mobsim.framework.listeners.MobsimListener to interface org.matsim.core.mobsim.framework.listeners.MobsimInitializedListener
2020-08-14 04:16:18,978  INFO MobsimListenerManager:53   assigned class org.matsim.core.mobsim.framework.listeners.MobsimListener to interface org.matsim.contrib.dvrp.run.QSimScopeObjectListenerModule$$Lambda$154/0x0000000800304440
2020-08-14 04:16:18,978  INFO QSimProvider:135 Added MobsimListener class org.matsim.contrib.dvrp.run.QSimScopeObjectListenerModule$$Lambda$154/0x0000000800304440
2020-08-14 04:16:18,978  INFO MobsimListenerManager:49 calling addQueueSimulationListener
2020-08-14 04:16:18,978  INFO MobsimListenerManager:53   assigned class org.matsim.core.mobsim.framework.listeners.MobsimListener to interface org.matsim.core.mobsim.framework.listeners.MobsimBeforeCleanupListener
2020-08-14 04:16:18,979  INFO MobsimListenerManager:53   assigned class org.matsim.core.mobsim.framework.listeners.MobsimListener to interface org.matsim.core.mobsim.framework.listeners.MobsimListener
2020-08-14 04:16:18,979  INFO MobsimListenerManager:53   assigned class org.matsim.core.mobsim.framework.listeners.MobsimListener to interface org.matsim.contrib.taxi.util.stats.TaxiStatsDumper
2020-08-14 04:16:18,979  INFO QSimProvider:135 Added MobsimListener class org.matsim.contrib.taxi.util.stats.TaxiStatsDumper
2020-08-14 04:16:18,979  INFO MobsimListenerManager:49 calling addQueueSimulationListener
2020-08-14 04:16:18,979  INFO MobsimListenerManager:53   assigned class org.matsim.core.mobsim.framework.listeners.MobsimListener to interface org.matsim.core.mobsim.framework.listeners.MobsimListener
2020-08-14 04:16:18,979  INFO MobsimListenerManager:53   assigned class org.matsim.core.mobsim.framework.listeners.MobsimListener to interface org.matsim.core.mobsim.framework.listeners.MobsimInitializedListener
2020-08-14 04:16:18,979  INFO MobsimListenerManager:53   assigned class org.matsim.core.mobsim.framework.listeners.MobsimListener to interface org.matsim.contrib.dvrp.run.QSimScopeObjectListenerModule$$Lambda$154/0x0000000800304440
2020-08-14 04:16:18,980  INFO QSimProvider:135 Added MobsimListener class org.matsim.contrib.dvrp.run.QSimScopeObjectListenerModule$$Lambda$154/0x0000000800304440
2020-08-14 04:16:18,980  INFO QSimProvider:129 Added AgentSource class org.matsim.contrib.dvrp.vrpagent.VrpAgentSource
2020-08-14 04:16:18,980  INFO QSimProvider:111 Added MobsimEngine class org.matsim.contrib.dvrp.passenger.PassengerEngine
2020-08-14 04:16:18,980  INFO QSimProvider:123 Added DepartureHandler class org.matsim.contrib.dvrp.passenger.PassengerEngine
2020-08-14 04:16:18,980  INFO MobsimListenerManager:49 calling addQueueSimulationListener
2020-08-14 04:16:18,980  INFO MobsimListenerManager:53   assigned class org.matsim.core.mobsim.framework.listeners.MobsimListener to interface org.matsim.core.mobsim.framework.listeners.MobsimBeforeSimStepListener
2020-08-14 04:16:18,980  INFO MobsimListenerManager:53   assigned class org.matsim.core.mobsim.framework.listeners.MobsimListener to interface org.matsim.contrib.taxi.optimizer.rules.RuleBasedTaxiOptimizer
2020-08-14 04:16:18,980  INFO MobsimListenerManager:53   assigned class org.matsim.core.mobsim.framework.listeners.MobsimListener to interface org.matsim.core.mobsim.framework.listeners.MobsimListener
2020-08-14 04:16:18,981  INFO MobsimListenerManager:53   assigned class org.matsim.core.mobsim.framework.listeners.MobsimListener to interface org.matsim.contrib.taxi.optimizer.DefaultTaxiOptimizer
2020-08-14 04:16:18,981  INFO MobsimListenerManager:53   assigned class org.matsim.core.mobsim.framework.listeners.MobsimListener to interface org.matsim.contrib.taxi.optimizer.TaxiOptimizer
2020-08-14 04:16:18,981  INFO QSimProvider:135 Added MobsimListener class org.matsim.contrib.taxi.optimizer.rules.RuleBasedTaxiOptimizer
2020-08-14 04:16:18,981  INFO MobsimListenerManager:49 calling addQueueSimulationListener
2020-08-14 04:16:18,981  INFO MobsimListenerManager:53   assigned class org.matsim.core.mobsim.framework.listeners.MobsimListener to interface org.matsim.core.mobsim.framework.listeners.MobsimBeforeCleanupListener
2020-08-14 04:16:18,981  INFO MobsimListenerManager:53   assigned class org.matsim.core.mobsim.framework.listeners.MobsimListener to interface org.matsim.core.mobsim.framework.listeners.MobsimListener
2020-08-14 04:16:18,982  INFO MobsimListenerManager:53   assigned class org.matsim.core.mobsim.framework.listeners.MobsimListener to interface org.matsim.contrib.taxi.util.TaxiSimulationConsistencyChecker
2020-08-14 04:16:18,982  INFO QSimProvider:135 Added MobsimListener class org.matsim.contrib.taxi.util.TaxiSimulationConsistencyChecker
2020-08-14 04:16:18,990  INFO MobsimListenerManager:49 calling addQueueSimulationListener
2020-08-14 04:16:18,990  INFO MobsimListenerManager:53   assigned class org.matsim.core.mobsim.framework.listeners.MobsimListener to interface org.matsim.contrib.util.timeprofile.TimeProfileCollector
2020-08-14 04:16:18,990  INFO MobsimListenerManager:53   assigned class org.matsim.core.mobsim.framework.listeners.MobsimListener to interface org.matsim.core.mobsim.framework.listeners.MobsimBeforeSimStepListener
2020-08-14 04:16:18,990  INFO MobsimListenerManager:53   assigned class org.matsim.core.mobsim.framework.listeners.MobsimListener to interface org.matsim.core.mobsim.framework.listeners.MobsimBeforeCleanupListener
2020-08-14 04:16:18,991  INFO MobsimListenerManager:53   assigned class org.matsim.core.mobsim.framework.listeners.MobsimListener to interface org.matsim.core.mobsim.framework.listeners.MobsimListener
2020-08-14 04:16:18,991  INFO QSimProvider:135 Added MobsimListener class org.matsim.contrib.util.timeprofile.TimeProfileCollector
2020-08-14 04:16:18,991  INFO MobsimListenerManager:49 calling addQueueSimulationListener
2020-08-14 04:16:18,991  INFO MobsimListenerManager:53   assigned class org.matsim.core.mobsim.framework.listeners.MobsimListener to interface org.matsim.core.mobsim.framework.listeners.MobsimBeforeCleanupListener
2020-08-14 04:16:18,991  INFO MobsimListenerManager:53   assigned class org.matsim.core.mobsim.framework.listeners.MobsimListener to interface org.matsim.contrib.dvrp.fleet.VehicleStartLinkToLastLinkUpdater
2020-08-14 04:16:18,991  INFO MobsimListenerManager:53   assigned class org.matsim.core.mobsim.framework.listeners.MobsimListener to interface org.matsim.core.mobsim.framework.listeners.MobsimListener
2020-08-14 04:16:18,991  INFO QSimProvider:135 Added MobsimListener class org.matsim.contrib.dvrp.fleet.VehicleStartLinkToLastLinkUpdater
2020-08-14 04:16:18,991  INFO MobsimListenerManager:49 calling addQueueSimulationListener
2020-08-14 04:16:18,991  INFO MobsimListenerManager:53   assigned class org.matsim.core.mobsim.framework.listeners.MobsimListener to interface org.matsim.core.mobsim.framework.listeners.MobsimListener
2020-08-14 04:16:18,992  INFO MobsimListenerManager:53   assigned class org.matsim.core.mobsim.framework.listeners.MobsimListener to interface org.matsim.core.mobsim.framework.listeners.MobsimInitializedListener
2020-08-14 04:16:18,992  INFO MobsimListenerManager:53   assigned class org.matsim.core.mobsim.framework.listeners.MobsimListener to interface org.matsim.contrib.dvrp.run.QSimScopeObjectListenerModule$$Lambda$154/0x0000000800304440
2020-08-14 04:16:18,992  INFO QSimProvider:135 Added MobsimListener class org.matsim.contrib.dvrp.run.QSimScopeObjectListenerModule$$Lambda$154/0x0000000800304440
2020-08-14 04:16:18,992  INFO MobsimListenerManager:49 calling addQueueSimulationListener
2020-08-14 04:16:18,992  INFO MobsimListenerManager:53   assigned class org.matsim.core.mobsim.framework.listeners.MobsimListener to interface org.matsim.core.mobsim.framework.listeners.MobsimBeforeCleanupListener
2020-08-14 04:16:18,992  INFO MobsimListenerManager:53   assigned class org.matsim.core.mobsim.framework.listeners.MobsimListener to interface org.matsim.core.mobsim.framework.listeners.MobsimListener
2020-08-14 04:16:18,992  INFO MobsimListenerManager:53   assigned class org.matsim.core.mobsim.framework.listeners.MobsimListener to interface org.matsim.contrib.taxi.util.stats.TaxiStatsDumper
2020-08-14 04:16:18,992  INFO QSimProvider:135 Added MobsimListener class org.matsim.contrib.taxi.util.stats.TaxiStatsDumper
2020-08-14 04:16:18,992  INFO MobsimListenerManager:49 calling addQueueSimulationListener
2020-08-14 04:16:18,992  INFO MobsimListenerManager:53   assigned class org.matsim.core.mobsim.framework.listeners.MobsimListener to interface org.matsim.core.mobsim.framework.listeners.MobsimListener
2020-08-14 04:16:18,992  INFO MobsimListenerManager:53   assigned class org.matsim.core.mobsim.framework.listeners.MobsimListener to interface org.matsim.core.mobsim.framework.listeners.MobsimInitializedListener
2020-08-14 04:16:18,992  INFO MobsimListenerManager:53   assigned class org.matsim.core.mobsim.framework.listeners.MobsimListener to interface org.matsim.contrib.dvrp.run.QSimScopeObjectListenerModule$$Lambda$154/0x0000000800304440
2020-08-14 04:16:18,993  INFO QSimProvider:135 Added MobsimListener class org.matsim.contrib.dvrp.run.QSimScopeObjectListenerModule$$Lambda$154/0x0000000800304440
2020-08-14 04:16:18,993  INFO QSimProvider:129 Added AgentSource class org.matsim.contrib.dvrp.vrpagent.VrpAgentSource
2020-08-14 04:16:18,993  INFO QSimProvider:111 Added MobsimEngine class org.matsim.contrib.dvrp.passenger.PassengerEngine
2020-08-14 04:16:18,993  INFO QSimProvider:123 Added DepartureHandler class org.matsim.contrib.dvrp.passenger.PassengerEngine
2020-08-14 04:16:18,993  INFO MobsimListenerManager:49 calling addQueueSimulationListener
2020-08-14 04:16:18,993  INFO MobsimListenerManager:53   assigned class org.matsim.core.mobsim.framework.listeners.MobsimListener to interface org.matsim.core.mobsim.framework.listeners.MobsimBeforeSimStepListener
2020-08-14 04:16:18,993  INFO MobsimListenerManager:53   assigned class org.matsim.core.mobsim.framework.listeners.MobsimListener to interface org.matsim.contrib.taxi.optimizer.rules.RuleBasedTaxiOptimizer
2020-08-14 04:16:18,993  INFO MobsimListenerManager:53   assigned class org.matsim.core.mobsim.framework.listeners.MobsimListener to interface org.matsim.core.mobsim.framework.listeners.MobsimListener
2020-08-14 04:16:18,993  INFO MobsimListenerManager:53   assigned class org.matsim.core.mobsim.framework.listeners.MobsimListener to interface org.matsim.contrib.taxi.optimizer.DefaultTaxiOptimizer
2020-08-14 04:16:18,993  INFO MobsimListenerManager:53   assigned class org.matsim.core.mobsim.framework.listeners.MobsimListener to interface org.matsim.contrib.taxi.optimizer.TaxiOptimizer
2020-08-14 04:16:18,993  INFO QSimProvider:135 Added MobsimListener class org.matsim.contrib.taxi.optimizer.rules.RuleBasedTaxiOptimizer
2020-08-14 04:16:18,993  INFO MobsimListenerManager:49 calling addQueueSimulationListener
2020-08-14 04:16:18,994  INFO MobsimListenerManager:53   assigned class org.matsim.core.mobsim.framework.listeners.MobsimListener to interface org.matsim.core.mobsim.framework.listeners.MobsimBeforeCleanupListener
2020-08-14 04:16:18,994  INFO MobsimListenerManager:53   assigned class org.matsim.core.mobsim.framework.listeners.MobsimListener to interface org.matsim.core.mobsim.framework.listeners.MobsimListener
2020-08-14 04:16:18,994  INFO MobsimListenerManager:53   assigned class org.matsim.core.mobsim.framework.listeners.MobsimListener to interface org.matsim.contrib.taxi.util.TaxiSimulationConsistencyChecker
2020-08-14 04:16:18,994  INFO QSimProvider:135 Added MobsimListener class org.matsim.contrib.taxi.util.TaxiSimulationConsistencyChecker
2020-08-14 04:16:18,994  INFO MobsimListenerManager:49 calling addQueueSimulationListener
2020-08-14 04:16:18,994  INFO MobsimListenerManager:53   assigned class org.matsim.core.mobsim.framework.listeners.MobsimListener to interface org.matsim.contrib.util.timeprofile.TimeProfileCollector
2020-08-14 04:16:18,994  INFO MobsimListenerManager:53   assigned class org.matsim.core.mobsim.framework.listeners.MobsimListener to interface org.matsim.core.mobsim.framework.listeners.MobsimBeforeSimStepListener
2020-08-14 04:16:18,994  INFO MobsimListenerManager:53   assigned class org.matsim.core.mobsim.framework.listeners.MobsimListener to interface org.matsim.core.mobsim.framework.listeners.MobsimBeforeCleanupListener
2020-08-14 04:16:18,995  INFO MobsimListenerManager:53   assigned class org.matsim.core.mobsim.framework.listeners.MobsimListener to interface org.matsim.core.mobsim.framework.listeners.MobsimListener
2020-08-14 04:16:18,995  INFO QSimProvider:135 Added MobsimListener class org.matsim.contrib.util.timeprofile.TimeProfileCollector
2020-08-14 04:16:18,995  INFO MobsimListenerManager:49 calling addQueueSimulationListener
2020-08-14 04:16:18,995  INFO MobsimListenerManager:53   assigned class org.matsim.core.mobsim.framework.listeners.MobsimListener to interface org.matsim.core.mobsim.framework.listeners.MobsimBeforeCleanupListener
2020-08-14 04:16:18,995  INFO MobsimListenerManager:53   assigned class org.matsim.core.mobsim.framework.listeners.MobsimListener to interface org.matsim.contrib.dvrp.fleet.VehicleStartLinkToLastLinkUpdater
2020-08-14 04:16:18,995  INFO MobsimListenerManager:53   assigned class org.matsim.core.mobsim.framework.listeners.MobsimListener to interface org.matsim.core.mobsim.framework.listeners.MobsimListener
2020-08-14 04:16:18,995  INFO QSimProvider:135 Added MobsimListener class org.matsim.contrib.dvrp.fleet.VehicleStartLinkToLastLinkUpdater
2020-08-14 04:16:18,995  INFO MobsimListenerManager:49 calling addQueueSimulationListener
2020-08-14 04:16:18,995  INFO MobsimListenerManager:53   assigned class org.matsim.core.mobsim.framework.listeners.MobsimListener to interface org.matsim.core.mobsim.framework.listeners.MobsimListener
2020-08-14 04:16:18,996  INFO MobsimListenerManager:53   assigned class org.matsim.core.mobsim.framework.listeners.MobsimListener to interface org.matsim.core.mobsim.framework.listeners.MobsimInitializedListener
2020-08-14 04:16:18,996  INFO MobsimListenerManager:53   assigned class org.matsim.core.mobsim.framework.listeners.MobsimListener to interface org.matsim.contrib.dvrp.run.QSimScopeObjectListenerModule$$Lambda$154/0x0000000800304440
2020-08-14 04:16:18,996  INFO QSimProvider:135 Added MobsimListener class org.matsim.contrib.dvrp.run.QSimScopeObjectListenerModule$$Lambda$154/0x0000000800304440
2020-08-14 04:16:18,996  INFO MobsimListenerManager:49 calling addQueueSimulationListener
2020-08-14 04:16:18,996  INFO MobsimListenerManager:53   assigned class org.matsim.core.mobsim.framework.listeners.MobsimListener to interface org.matsim.core.mobsim.framework.listeners.MobsimBeforeCleanupListener
2020-08-14 04:16:18,996  INFO MobsimListenerManager:53   assigned class org.matsim.core.mobsim.framework.listeners.MobsimListener to interface org.matsim.core.mobsim.framework.listeners.MobsimListener
2020-08-14 04:16:18,996  INFO MobsimListenerManager:53   assigned class org.matsim.core.mobsim.framework.listeners.MobsimListener to interface org.matsim.contrib.taxi.util.stats.TaxiStatsDumper
2020-08-14 04:16:18,997  INFO QSimProvider:135 Added MobsimListener class org.matsim.contrib.taxi.util.stats.TaxiStatsDumper
2020-08-14 04:16:18,997  INFO MobsimListenerManager:49 calling addQueueSimulationListener
2020-08-14 04:16:18,997  INFO MobsimListenerManager:53   assigned class org.matsim.core.mobsim.framework.listeners.MobsimListener to interface org.matsim.core.mobsim.framework.listeners.MobsimListener
2020-08-14 04:16:18,997  INFO MobsimListenerManager:53   assigned class org.matsim.core.mobsim.framework.listeners.MobsimListener to interface org.matsim.core.mobsim.framework.listeners.MobsimInitializedListener
2020-08-14 04:16:18,997  INFO MobsimListenerManager:53   assigned class org.matsim.core.mobsim.framework.listeners.MobsimListener to interface org.matsim.contrib.dvrp.run.QSimScopeObjectListenerModule$$Lambda$154/0x0000000800304440
2020-08-14 04:16:18,997  INFO QSimProvider:135 Added MobsimListener class org.matsim.contrib.dvrp.run.QSimScopeObjectListenerModule$$Lambda$154/0x0000000800304440
2020-08-14 04:16:18,997  INFO QSimProvider:129 Added AgentSource class org.matsim.contrib.dvrp.vrpagent.VrpAgentSource
2020-08-14 04:16:18,998  INFO QSimProvider:111 Added MobsimEngine class org.matsim.contrib.dvrp.passenger.PassengerEngine
2020-08-14 04:16:18,998  INFO QSimProvider:123 Added DepartureHandler class org.matsim.contrib.dvrp.passenger.PassengerEngine
2020-08-14 04:16:18,998  INFO MobsimListenerManager:49 calling addQueueSimulationListener
2020-08-14 04:16:18,998  INFO MobsimListenerManager:53   assigned class org.matsim.core.mobsim.framework.listeners.MobsimListener to interface org.matsim.core.mobsim.framework.listeners.MobsimBeforeSimStepListener
2020-08-14 04:16:18,998  INFO MobsimListenerManager:53   assigned class org.matsim.core.mobsim.framework.listeners.MobsimListener to interface org.matsim.contrib.taxi.optimizer.rules.RuleBasedTaxiOptimizer
2020-08-14 04:16:18,998  INFO MobsimListenerManager:53   assigned class org.matsim.core.mobsim.framework.listeners.MobsimListener to interface org.matsim.core.mobsim.framework.listeners.MobsimListener
2020-08-14 04:16:18,998  INFO MobsimListenerManager:53   assigned class org.matsim.core.mobsim.framework.listeners.MobsimListener to interface org.matsim.contrib.taxi.optimizer.DefaultTaxiOptimizer
2020-08-14 04:16:18,998  INFO MobsimListenerManager:53   assigned class org.matsim.core.mobsim.framework.listeners.MobsimListener to interface org.matsim.contrib.taxi.optimizer.TaxiOptimizer
2020-08-14 04:16:18,999  INFO QSimProvider:135 Added MobsimListener class org.matsim.contrib.taxi.optimizer.rules.RuleBasedTaxiOptimizer
2020-08-14 04:16:18,999  INFO MobsimListenerManager:49 calling addQueueSimulationListener
2020-08-14 04:16:18,999  INFO MobsimListenerManager:53   assigned class org.matsim.core.mobsim.framework.listeners.MobsimListener to interface org.matsim.core.mobsim.framework.listeners.MobsimBeforeCleanupListener
2020-08-14 04:16:18,999  INFO MobsimListenerManager:53   assigned class org.matsim.core.mobsim.framework.listeners.MobsimListener to interface org.matsim.core.mobsim.framework.listeners.MobsimListener
2020-08-14 04:16:18,999  INFO MobsimListenerManager:53   assigned class org.matsim.core.mobsim.framework.listeners.MobsimListener to interface org.matsim.contrib.taxi.util.TaxiSimulationConsistencyChecker
2020-08-14 04:16:18,999  INFO QSimProvider:135 Added MobsimListener class org.matsim.contrib.taxi.util.TaxiSimulationConsistencyChecker
2020-08-14 04:16:18,999  INFO MobsimListenerManager:49 calling addQueueSimulationListener
2020-08-14 04:16:18,999  INFO MobsimListenerManager:53   assigned class org.matsim.core.mobsim.framework.listeners.MobsimListener to interface org.matsim.contrib.util.timeprofile.TimeProfileCollector
2020-08-14 04:16:18,999  INFO MobsimListenerManager:53   assigned class org.matsim.core.mobsim.framework.listeners.MobsimListener to interface org.matsim.core.mobsim.framework.listeners.MobsimBeforeSimStepListener
2020-08-14 04:16:18,999  INFO MobsimListenerManager:53   assigned class org.matsim.core.mobsim.framework.listeners.MobsimListener to interface org.matsim.core.mobsim.framework.listeners.MobsimBeforeCleanupListener
2020-08-14 04:16:19,000  INFO MobsimListenerManager:53   assigned class org.matsim.core.mobsim.framework.listeners.MobsimListener to interface org.matsim.core.mobsim.framework.listeners.MobsimListener
2020-08-14 04:16:19,000  INFO QSimProvider:135 Added MobsimListener class org.matsim.contrib.util.timeprofile.TimeProfileCollector
2020-08-14 04:16:19,009  INFO QNetsimEngine:506 Assigned 62 nodes and 170 links to QSimEngineRunner #0
2020-08-14 04:16:19,014  INFO QNetsimEngine:346 SIMULATION (QNetsimEngine) AT 00:00:00 : #links=0 #nodes=0
2020-08-14 04:16:19,015  INFO EventsManagerImpl:134  event # 1
2020-08-14 04:16:19,016  INFO EventsManagerImpl:134  event # 4
2020-08-14 04:16:19,016  INFO QSim:505 SIMULATION (NEW QSim) AT 00:00:00 : #Veh=13 lost=0 simT=0.0s realT=0s; (s/r): 0.0
2020-08-14 04:16:19,016  INFO Gbl:58 used RAM: 92878848B = 90702kB = 88MB  free: 175556608B = 167MB  total: 268435456B = 256MB
2020-08-14 04:16:19,031  INFO EventsManagerImpl:134  event # 16
2020-08-14 04:16:19,071  INFO EventsManagerImpl:134  event # 64
2020-08-14 04:16:19,136  INFO EventsManagerImpl:134  event # 256
2020-08-14 04:16:19,218  INFO QNetsimEngine:346 SIMULATION (QNetsimEngine) AT 01:00:00 : #links=0 #nodes=0
2020-08-14 04:16:19,219  INFO QSim:505 SIMULATION (NEW QSim) AT 01:00:00 : #Veh=3 lost=0 simT=3600.0s realT=0s; (s/r): Infinity
2020-08-14 04:16:19,219  INFO Gbl:58 used RAM: 97595392B = 95308kB = 93MB  free: 170840064B = 162MB  total: 268435456B = 256MB
2020-08-14 04:16:19,330  INFO QNetsimEngine:346 SIMULATION (QNetsimEngine) AT 02:00:00 : #links=0 #nodes=0
2020-08-14 04:16:19,330  INFO QSim:505 SIMULATION (NEW QSim) AT 02:00:00 : #Veh=3 lost=0 simT=7200.0s realT=0s; (s/r): Infinity
2020-08-14 04:16:19,330  INFO Gbl:58 used RAM: 15995264B = 15620kB = 15MB  free: 252440192B = 240MB  total: 268435456B = 256MB
2020-08-14 04:16:20,612  INFO Gbl:191 Thread performance: Thread=class org.matsim.core.events.SimStepParallelEventsManagerImpl$ProcessEventsRunnable0  cpu-time=0.078125sec
2020-08-14 04:16:20,612  INFO AbstractController$9:220 ### ITERATION 0 fires after mobsim event
2020-08-14 04:16:20,613  INFO ControlerListenerManagerImpl:248 calling notifyAfterMobsim on org.matsim.analysis.LegTimesControlerListener
2020-08-14 04:16:20,614  INFO LegTimesControlerListener:50 [0] average trip (probably: leg) duration is: 258 seconds = 00:04:18
2020-08-14 04:16:20,614  INFO ControlerListenerManagerImpl:248 calling notifyAfterMobsim on org.matsim.core.scoring.EventsToActivities$1
2020-08-14 04:16:20,614  INFO ControlerListenerManagerImpl:251 [it.0] all ControlerAfterMobsimListeners called.
2020-08-14 04:16:20,615  INFO AbstractController$4:149 ### ITERATION 0 fires scoring event
2020-08-14 04:16:20,615  INFO ControlerListenerManagerImpl:183 calling notifyScoring on org.matsim.core.scoring.PlansScoringImpl
2020-08-14 04:16:20,616  INFO NewScoreAssignerImpl:36 it: 0 msaStart: null
2020-08-14 04:16:20,616  INFO ControlerListenerManagerImpl:194 [it.0] all ControlerScoringListeners called.
2020-08-14 04:16:20,616  INFO AbstractController$5:157 ### ITERATION 0 fires iteration end event
2020-08-14 04:16:20,617  INFO ControlerListenerManagerImpl:160 calling notifyIterationEnds on org.matsim.core.controler.corelisteners.EventsHandlingImpl
2020-08-14 04:16:20,617  INFO EventsManagerImpl:161 removing Event-Handler: org.matsim.core.events.algorithms.EventWriterXML
2020-08-14 04:16:20,618  INFO EventsManagerImpl:161 removing Event-Handler: org.matsim.core.events.algorithms.EventWriterXML
2020-08-14 04:16:20,618  INFO ControlerListenerManagerImpl:160 calling notifyIterationEnds on org.matsim.core.scoring.PlansScoringImpl
2020-08-14 04:16:20,618  INFO ControlerListenerManagerImpl:167 calling notifyIterationEnds on org.matsim.counts.CountsControlerListener
2020-08-14 04:16:20,618  INFO ControlerListenerManagerImpl:167 calling notifyIterationEnds on org.matsim.analysis.ModeStatsControlerListener
2020-08-14 04:16:20,618  INFO ModeStatsControlerListener:155 -- mode share of mode bike = 0.0
2020-08-14 04:16:20,618  INFO ModeStatsControlerListener:155 -- mode share of mode car = 0.0
2020-08-14 04:16:20,618  INFO ModeStatsControlerListener:155 -- mode share of mode other = 0.0
2020-08-14 04:16:20,619  INFO ModeStatsControlerListener:155 -- mode share of mode pt = 0.0
2020-08-14 04:16:20,619  INFO ModeStatsControlerListener:155 -- mode share of mode ride = 0.0
2020-08-14 04:16:20,619  INFO ModeStatsControlerListener:155 -- mode share of mode taxi_A = 0.4
2020-08-14 04:16:20,619  INFO ModeStatsControlerListener:155 -- mode share of mode taxi_B = 0.3
2020-08-14 04:16:20,619  INFO ModeStatsControlerListener:155 -- mode share of mode taxi_C = 0.3
2020-08-14 04:16:20,619  INFO ModeStatsControlerListener:155 -- mode share of mode walk = 0.0
2020-08-14 04:16:20,619  INFO ControlerListenerManagerImpl:167 calling notifyIterationEnds on org.matsim.analysis.ScoreStatsControlerListener
2020-08-14 04:16:20,619  INFO ScoreStatsControlerListener:191 -- avg. score of the executed plan of each agent: 142.4054017904176
2020-08-14 04:16:20,619  INFO ScoreStatsControlerListener:192 -- avg. score of the worst plan of each agent: 142.4054017904176
2020-08-14 04:16:20,619  INFO ScoreStatsControlerListener:193 -- avg. of the avg. plan score per agent: 142.4054017904176
2020-08-14 04:16:20,619  INFO ScoreStatsControlerListener:194 -- avg. score of the best plan of each agent: 142.4054017904176
2020-08-14 04:16:20,620  INFO ControlerListenerManagerImpl:167 calling notifyIterationEnds on org.matsim.analysis.TravelDistanceStatsControlerListener
2020-08-14 04:16:20,620  INFO TravelDistanceStats:128 [TravelDistanceStats] using 2 thread(s).
2020-08-14 04:16:20,621  INFO TravelDistanceStats:141 [TravelDistanceStats] all threads finished.
2020-08-14 04:16:20,621  INFO TravelDistanceStats:161 -- average of the average leg distance per plan (executed plans only): 0.0
2020-08-14 04:16:20,621  INFO TravelDistanceStats:162 (TravelDistanceStats takes an average over all legs where the simulation reports travelled distances. These are car legs, pt legs,
2020-08-14 04:16:20,621  INFO TravelDistanceStats:163 (and teleported legs whose route contains a distance.)
2020-08-14 04:16:20,621  INFO ControlerListenerManagerImpl:167 calling notifyIterationEnds on org.matsim.analysis.LegHistogramListener
2020-08-14 04:16:20,629  INFO LegHistogramListener:72 number of legs:	10	100%
2020-08-14 04:16:20,629  INFO LegHistogramListener:79 number of taxi_A legs:	4	40.0%
2020-08-14 04:16:20,629  INFO LegHistogramListener:79 number of taxi_B legs:	3	30.0%
2020-08-14 04:16:20,629  INFO LegHistogramListener:79 number of taxi_C legs:	3	30.0%
2020-08-14 04:16:20,951  INFO ControlerListenerManagerImpl:167 calling notifyIterationEnds on org.matsim.analysis.LinkStatsControlerListener
2020-08-14 04:16:20,951  INFO ControlerListenerManagerImpl:167 calling notifyIterationEnds on org.matsim.contrib.dvrp.fleet.VehicleStartLinkToLastLinkUpdater
2020-08-14 04:16:20,952  INFO ControlerListenerManagerImpl:167 calling notifyIterationEnds on org.matsim.contrib.dvrp.fleet.VehicleStartLinkToLastLinkUpdater
2020-08-14 04:16:20,952  INFO ControlerListenerManagerImpl:167 calling notifyIterationEnds on org.matsim.contrib.dvrp.fleet.VehicleStartLinkToLastLinkUpdater
2020-08-14 04:16:20,952  INFO ControlerListenerManagerImpl:171 [it.0] all ControlerIterationEndsListeners called.
2020-08-14 04:16:21,178  INFO AbstractController:167 ### ITERATION 0 ENDS
2020-08-14 04:16:21,178  INFO AbstractController:168 ###################################################
2020-08-14 04:16:21,178  INFO MatsimRuntimeModifications:58 S H U T D O W N   ---   start shutdown.
2020-08-14 04:16:21,179  INFO ControlerListenerManagerImpl:121 calling notifyShutdown on org.matsim.core.controler.corelisteners.EventsHandlingImpl
2020-08-14 04:16:21,179  INFO ControlerListenerManagerImpl:121 calling notifyShutdown on org.matsim.core.controler.corelisteners.DumpDataAtEndImpl
2020-08-14 04:16:21,180  INFO Counter:70 [PopulationWriter] dumped person # 1
2020-08-14 04:16:21,180  INFO Counter:70 [PopulationWriter] dumped person # 2
2020-08-14 04:16:21,180  INFO Counter:70 [PopulationWriter] dumped person # 4
2020-08-14 04:16:21,181  INFO Counter:70 [PopulationWriter] dumped person # 8
2020-08-14 04:16:21,181  INFO PopulationWriter:139 Population written to: test/output/multi_mode_one_taxi/output_plans.xml.gz
2020-08-14 04:16:21,181  INFO Counter:76 [PopulationWriter] dumped person # 10
2020-08-14 04:16:21,184  INFO NetworkWriter:69 Writing network to file: test/output/multi_mode_one_taxi/output_network.xml.gz...
2020-08-14 04:16:21,190  INFO NetworkWriter:72 done.
2020-08-14 04:16:21,198  INFO Config:572 setting context to [file:/C:/Reeply/Study/Dissertation/MATSim/Test/]
2020-08-14 04:16:21,203  INFO Config:572 setting context to [file:/C:/Reeply/Study/Dissertation/MATSim/Test/]
2020-08-14 04:16:21,209  INFO Config:572 setting context to [file:/C:/Reeply/Study/Dissertation/MATSim/Test/]
2020-08-14 04:16:21,213  INFO Config:572 setting context to [file:/C:/Reeply/Study/Dissertation/MATSim/Test/]
2020-08-14 04:16:21,218  INFO Config:572 setting context to [file:/C:/Reeply/Study/Dissertation/MATSim/Test/]
2020-08-14 04:16:21,221  INFO Config:572 setting context to [file:/C:/Reeply/Study/Dissertation/MATSim/Test/]
2020-08-14 04:16:21,223  INFO Config:572 setting context to [file:/C:/Reeply/Study/Dissertation/MATSim/Test/]
2020-08-14 04:16:21,227  INFO Config:572 setting context to [file:/C:/Reeply/Study/Dissertation/MATSim/Test/]
2020-08-14 04:16:21,230  INFO Config:572 setting context to [file:/C:/Reeply/Study/Dissertation/MATSim/Test/]
2020-08-14 04:16:21,232  INFO Config:572 setting context to [file:/C:/Reeply/Study/Dissertation/MATSim/Test/]
2020-08-14 04:16:21,235  INFO Config:572 setting context to [file:/C:/Reeply/Study/Dissertation/MATSim/Test/]
2020-08-14 04:16:21,241  INFO Config:572 setting context to [file:/C:/Reeply/Study/Dissertation/MATSim/Test/]
2020-08-14 04:16:21,243  INFO Config:572 setting context to [file:/C:/Reeply/Study/Dissertation/MATSim/Test/]
2020-08-14 04:16:21,245  INFO Config:572 setting context to [file:/C:/Reeply/Study/Dissertation/MATSim/Test/]
2020-08-14 04:16:21,247  INFO Config:572 setting context to [file:/C:/Reeply/Study/Dissertation/MATSim/Test/]
2020-08-14 04:16:21,253  INFO Config:572 setting context to [file:/C:/Reeply/Study/Dissertation/MATSim/Test/]
2020-08-14 04:16:21,255  INFO Config:572 setting context to [file:/C:/Reeply/Study/Dissertation/MATSim/Test/]
2020-08-14 04:16:21,258  INFO Config:572 setting context to [file:/C:/Reeply/Study/Dissertation/MATSim/Test/]
2020-08-14 04:16:21,260  INFO Config:572 setting context to [file:/C:/Reeply/Study/Dissertation/MATSim/Test/]
2020-08-14 04:16:21,268  INFO Config:572 setting context to [file:/C:/Reeply/Study/Dissertation/MATSim/Test/]
2020-08-14 04:16:21,270  INFO Config:572 setting context to [file:/C:/Reeply/Study/Dissertation/MATSim/Test/]
2020-08-14 04:16:21,271  INFO Config:572 setting context to [file:/C:/Reeply/Study/Dissertation/MATSim/Test/]
2020-08-14 04:16:21,273  INFO Config:572 setting context to [file:/C:/Reeply/Study/Dissertation/MATSim/Test/]
2020-08-14 04:16:21,274  INFO Config:572 setting context to [file:/C:/Reeply/Study/Dissertation/MATSim/Test/]
2020-08-14 04:16:21,276  INFO Config:572 setting context to [file:/C:/Reeply/Study/Dissertation/MATSim/Test/]
2020-08-14 04:16:21,278  INFO Config:572 setting context to [file:/C:/Reeply/Study/Dissertation/MATSim/Test/]
2020-08-14 04:16:21,280  INFO Config:572 setting context to [file:/C:/Reeply/Study/Dissertation/MATSim/Test/]
2020-08-14 04:16:21,285  INFO VehicleWriterV1:52 about to write vehicles to: test/output/multi_mode_one_taxi/output_vehicles.xml.gz
2020-08-14 04:16:21,287  INFO HouseholdsWriterV10:66 about to write  households to: test/output/multi_mode_one_taxi/output_households.xml.gz
2020-08-14 04:16:21,288  INFO Counter:76 [HouseholdsWriter] wrote household # 0
2020-08-14 04:16:21,290  INFO LanesWriter:72 about to write lanes to: test/output/multi_mode_one_taxi/output_lanes.xml.gz
2020-08-14 04:16:21,468  INFO ControlerListenerManagerImpl:126 calling notifyShutdown on org.matsim.analysis.ModeStatsControlerListener
2020-08-14 04:16:21,469  INFO ControlerListenerManagerImpl:126 calling notifyShutdown on org.matsim.analysis.ScoreStatsControlerListener
2020-08-14 04:16:21,469  INFO ControlerListenerManagerImpl:126 calling notifyShutdown on org.matsim.analysis.TravelDistanceStatsControlerListener
2020-08-14 04:16:21,469  INFO ControlerListenerManagerImpl:126 calling notifyShutdown on org.matsim.contrib.taxi.util.stats.TaxiStatsDumper
2020-08-14 04:16:21,469  INFO ControlerListenerManagerImpl:126 calling notifyShutdown on org.matsim.contrib.taxi.util.stats.TaxiStatsDumper
2020-08-14 04:16:21,469  INFO ControlerListenerManagerImpl:126 calling notifyShutdown on org.matsim.contrib.taxi.util.stats.TaxiStatsDumper
2020-08-14 04:16:21,469  INFO ControlerListenerManagerImpl:129 all ControlerShutdownListeners called.
2020-08-14 04:16:21,470  INFO MatsimRuntimeModifications:81 S H U T D O W N   ---   shutdown completed.
2020-08-14 04:16:21,470  INFO OutputDirectoryLogging:146 closing the logfile, i.e. messages sent to the logger after this message are not written to the logfile.
